
       XFOIL         Version 6.99

 Calculated polar for: SDA1075 AIAA 2014-2151 Appendix A Table 4

 1 1 Reynolds number fixed          Mach number fixed

 xtrf =   1.000 (top)        1.000 (bottom)
 Mach =   0.000     Re =     0.015 e 6     Ncrit =   9.000  9.000

   alpha    CL        CD       CDp       CM     Top_Xtr  Bot_Xtr  Top_Itr  Bot_Itr
  ------ -------- --------- --------- -------- -------- -------- -------- --------
   0.000  -0.0126   0.03564   0.01199  -0.0126   1.0001   0.9999   1.0000 160.0000
   0.250   0.0016   0.03630   0.01252  -0.0122   1.0001   0.9999   1.0000 160.0000
   0.500   0.0159   0.03704   0.01313  -0.0118   1.0001   0.9999   1.0000 160.0000
   0.750   0.0304   0.03783   0.01381  -0.0116   1.0001   0.9999   1.0000 160.0000
   1.000   0.0450   0.03870   0.01455  -0.0115   1.0001   0.9999   1.0000 160.0000
   1.250   0.0595   0.03962   0.01537  -0.0115   1.0001   0.9999   1.0000 160.0000
   1.500   0.0740   0.04062   0.01626  -0.0116   1.0001   0.9999   1.0000 160.0000
   1.750   0.0884   0.04168   0.01723  -0.0117   1.0001   0.9999   1.0000 160.0000
   2.000   0.1028   0.04281   0.01826  -0.0119   1.0001   0.9999   1.0000 160.0000
   2.250   0.1171   0.04401   0.01936  -0.0123   1.0001   0.9999   1.0000 160.0000
   2.500   0.1312   0.04528   0.02054  -0.0126   1.0001   0.9999   1.0000 160.0000
   2.750   0.1452   0.04662   0.02179  -0.0131   1.0001   0.9999   1.0000 160.0000
   3.000   0.1591   0.04803   0.02311  -0.0136   1.0001   0.9999   1.0000 160.0000
   3.250   0.1728   0.04951   0.02451  -0.0141   1.0001   0.9999   1.0000 160.0000
   3.500   0.1864   0.05106   0.02598  -0.0148   1.0001   0.9999   1.0000 160.0000
   3.750   0.1998   0.05268   0.02752  -0.0154   1.0001   0.9999   1.0000 160.0000
   4.000   0.2130   0.05438   0.02913  -0.0161   1.0001   0.9999   1.0000 160.0000
   4.250   0.2260   0.05614   0.03081  -0.0169   1.0001   0.9999   1.0000 160.0000
   4.500   0.2388   0.05797   0.03257  -0.0177   1.0001   0.9999   1.0000 160.0000
   4.750   0.2515   0.05988   0.03440  -0.0185   1.0001   0.9999   1.0000 160.0000
   5.000   0.2639   0.06185   0.03630  -0.0194   1.0001   0.9999   1.0000 160.0000
   5.250   0.2761   0.06389   0.03827  -0.0203   1.0001   0.9999   1.0000 160.0000
   5.500   0.2881   0.06600   0.04031  -0.0212   1.0001   0.9999   1.0000 160.0000
   5.750   0.2999   0.06818   0.04243  -0.0221   1.0001   0.9999   1.0000 160.0000
   6.000   0.3115   0.07043   0.04462  -0.0231   1.0001   0.9999   1.0000 160.0000
   6.250   0.3229   0.07275   0.04688  -0.0241   1.0001   0.9999   1.0000 160.0000
   6.500   0.3342   0.07513   0.04921  -0.0252   1.0001   0.9999   1.0000 160.0000
   6.750   0.3452   0.07758   0.05162  -0.0262   1.0001   0.9999   1.0000 160.0000
   7.000   0.3561   0.08010   0.05410  -0.0273   1.0001   0.9999   1.0000 160.0000
   7.250   0.3668   0.08269   0.05666  -0.0284   1.0001   0.9999   1.0000 160.0000
   7.500   0.3773   0.08533   0.05930  -0.0295   1.0001   0.9999   1.0000 160.0000
   7.750   0.3877   0.08804   0.06201  -0.0307   1.0001   0.9999   1.0000 160.0000
   8.000   0.3979   0.09081   0.06480  -0.0318   1.0001   0.9999   1.0000 160.0000
   8.250   0.4080   0.09365   0.06767  -0.0330   1.0001   0.9999   1.0000 160.0000
   8.500   0.4180   0.09654   0.07063  -0.0342   1.0001   0.9999   1.0000 160.0000
   8.750   0.4278   0.09949   0.07367  -0.0355   1.0001   0.9999   1.0000 160.0000
   9.000   0.4375   0.10250   0.07680  -0.0368   1.0001   0.9999   1.0000 160.0000
   9.250   0.4472   0.10556   0.08001  -0.0380   1.0001   0.9999   1.0000 160.0000
   9.500   0.4567   0.10867   0.08332  -0.0394   1.0001   0.9999   1.0000 160.0000
   9.750   0.4661   0.11183   0.08673  -0.0407   1.0001   0.9999   1.0000 160.0000
  10.000   0.4755   0.11504   0.09023  -0.0421   1.0001   0.9999   1.0000 160.0000
  10.250   0.4849   0.11829   0.09384  -0.0435   1.0001   0.9999   1.0000 160.0000
  10.500   0.4942   0.12159   0.09755  -0.0450   1.0001   0.9999   1.0000 160.0000
  10.750   0.5034   0.12493   0.10137  -0.0464   1.0001   0.9999   1.0000 160.0000
  11.000   0.5127   0.12831   0.10531  -0.0479   1.0001   0.9999   1.0000 160.0000
  11.250   0.5219   0.13173   0.10936  -0.0495   1.0001   0.9999   1.0000 160.0000
  11.500   0.5312   0.13518   0.11353  -0.0511   1.0001   0.9999   1.0000 160.0000
  11.750   0.5404   0.13867   0.11782  -0.0527   1.0001   0.9999   1.0000 160.0000
  12.000   0.5602   0.14423   0.12404  -0.0570   0.9927   0.9999   1.9163 160.0000
