
       XFOIL         Version 6.99

 Calculated polar for: SDA1075 AIAA 2014-2151 Appendix A Table 4

 1 1 Reynolds number fixed          Mach number fixed

 xtrf =   1.000 (top)        1.000 (bottom)
 Mach =   0.000     Re =     0.020 e 6     Ncrit =   9.000  9.000

   alpha    CL        CD       CDp       CM     Top_Xtr  Bot_Xtr  Top_Itr  Bot_Itr
  ------ -------- --------- --------- -------- -------- -------- -------- --------
  12.000   0.6572   0.15430   0.13740  -0.0734   0.7523   0.9999  18.5466 160.0000
  11.750   0.6510   0.15191   0.13352  -0.0734   0.7743   0.9999  17.0595 160.0000
  11.500   0.6318   0.14640   0.12784  -0.0710   0.7950   0.9999  15.6638 160.0000
  11.250   0.6232   0.14365   0.12393  -0.0706   0.8204   0.9999  13.9491 160.0000
  11.000   0.6023   0.13843   0.11838  -0.0678   0.8467   0.9999  12.1680 160.0000
  10.750   0.5820   0.13337   0.11302  -0.0650   0.8724   0.9999  10.4327 160.0000
  10.500   0.5619   0.12874   0.10791  -0.0621   0.9022   0.9999   8.4124 160.0000
  10.250   0.5402   0.12390   0.10266  -0.0585   0.9303   0.9999   6.5054 160.0000
  10.000   0.5167   0.11941   0.09746  -0.0542   0.9660   0.9999   4.0444 160.0000
   9.750   0.4718   0.11125   0.08938  -0.0447   0.9963   0.9999   1.4744 160.0000
   9.500   0.4581   0.10757   0.08543  -0.0422   1.0001   0.9999   1.0000 160.0000
   9.250   0.4484   0.10439   0.08208  -0.0409   1.0001   0.9999   1.0000 160.0000
   9.000   0.4387   0.10125   0.07882  -0.0396   1.0001   0.9999   1.0000 160.0000
   8.750   0.4289   0.09818   0.07565  -0.0383   1.0001   0.9999   1.0000 160.0000
   8.500   0.4189   0.09516   0.07257  -0.0371   1.0001   0.9999   1.0000 160.0000
   8.250   0.4088   0.09220   0.06956  -0.0358   1.0001   0.9999   1.0000 160.0000
   8.000   0.3986   0.08930   0.06665  -0.0346   1.0001   0.9999   1.0000 160.0000
   7.750   0.3882   0.08647   0.06381  -0.0334   1.0001   0.9999   1.0000 160.0000
   7.500   0.3777   0.08370   0.06105  -0.0323   1.0001   0.9999   1.0000 160.0000
   7.250   0.3671   0.08100   0.05837  -0.0311   1.0001   0.9999   1.0000 160.0000
   7.000   0.3562   0.07836   0.05576  -0.0300   1.0001   0.9999   1.0000 160.0000
   6.750   0.3452   0.07579   0.05323  -0.0289   1.0001   0.9999   1.0000 160.0000
   6.500   0.3340   0.07329   0.05078  -0.0278   1.0001   0.9999   1.0000 160.0000
   6.250   0.3227   0.07086   0.04839  -0.0268   1.0001   0.9999   1.0000 160.0000
   6.000   0.3111   0.06849   0.04609  -0.0257   1.0001   0.9999   1.0000 160.0000
   5.750   0.2994   0.06619   0.04385  -0.0247   1.0001   0.9999   1.0000 160.0000
   5.500   0.2875   0.06396   0.04168  -0.0237   1.0001   0.9999   1.0000 160.0000
   5.250   0.2754   0.06180   0.03958  -0.0228   1.0001   0.9999   1.0000 160.0000
   5.000   0.2630   0.05970   0.03755  -0.0218   1.0001   0.9999   1.0000 160.0000
   4.750   0.2505   0.05768   0.03560  -0.0209   1.0001   0.9999   1.0000 160.0000
   4.500   0.2378   0.05572   0.03371  -0.0200   1.0001   0.9999   1.0000 160.0000
   4.250   0.2249   0.05384   0.03190  -0.0192   1.0001   0.9999   1.0000 160.0000
   4.000   0.2118   0.05202   0.03016  -0.0183   1.0001   0.9999   1.0000 160.0000
   3.750   0.1984   0.05027   0.02848  -0.0175   1.0001   0.9999   1.0000 160.0000
   3.500   0.1849   0.04859   0.02688  -0.0168   1.0001   0.9999   1.0000 160.0000
   3.250   0.1711   0.04698   0.02535  -0.0161   1.0001   0.9999   1.0000 160.0000
   3.000   0.1572   0.04544   0.02388  -0.0154   1.0001   0.9999   1.0000 160.0000
   2.750   0.1431   0.04397   0.02249  -0.0148   1.0001   0.9999   1.0000 160.0000
   2.500   0.1288   0.04256   0.02117  -0.0142   1.0001   0.9999   1.0000 160.0000
   2.250   0.1143   0.04123   0.01992  -0.0137   1.0001   0.9999   1.0000 160.0000
   2.000   0.0997   0.03997   0.01874  -0.0132   1.0001   0.9999   1.0000 160.0000
   1.750   0.0849   0.03877   0.01763  -0.0129   1.0001   0.9999   1.0000 160.0000
   1.500   0.0701   0.03765   0.01660  -0.0125   1.0001   0.9999   1.0000 160.0000
   1.250   0.0552   0.03659   0.01563  -0.0123   1.0001   0.9999   1.0000 160.0000
   1.000   0.0403   0.03560   0.01474  -0.0122   1.0001   0.9999   1.0000 160.0000
   0.750   0.0254   0.03468   0.01393  -0.0121   1.0001   0.9999   1.0000 160.0000
   0.500   0.0105   0.03383   0.01318  -0.0122   1.0001   0.9999   1.0000 160.0000
   0.250  -0.0043   0.03304   0.01250  -0.0123   1.0001   0.9999   1.0000 160.0000
   0.000  -0.0189   0.03231   0.01190  -0.0126   1.0001   0.9999   1.0000 160.0000
