
       XFOIL         Version 6.99

 Calculated polar for: SDA1075 AIAA 2014-2151 Appendix A Table 4

 1 1 Reynolds number fixed          Mach number fixed

 xtrf =   1.000 (top)        1.000 (bottom)
 Mach =   0.000     Re =     0.010 e 6     Ncrit =   9.000  9.000

   alpha    CL        CD       CDp       CM     Top_Xtr  Bot_Xtr  Top_Itr  Bot_Itr
  ------ -------- --------- --------- -------- -------- -------- -------- --------
   0.000  -0.0037   0.04147   0.01235  -0.0130   1.0001   0.9999   1.0000 160.0000
   0.250   0.0099   0.04207   0.01279  -0.0124   1.0001   0.9999   1.0000 160.0000
   0.500   0.0238   0.04273   0.01330  -0.0119   1.0001   0.9999   1.0000 160.0000
   0.750   0.0377   0.04345   0.01389  -0.0114   1.0001   0.9999   1.0000 160.0000
   1.000   0.0518   0.04423   0.01454  -0.0111   1.0001   0.9999   1.0000 160.0000
   1.250   0.0659   0.04508   0.01526  -0.0108   1.0001   0.9999   1.0000 160.0000
   1.500   0.0800   0.04600   0.01606  -0.0107   1.0001   0.9999   1.0000 160.0000
   1.750   0.0941   0.04698   0.01692  -0.0106   1.0001   0.9999   1.0000 160.0000
   2.000   0.1081   0.04802   0.01785  -0.0106   1.0001   0.9999   1.0000 160.0000
   2.250   0.1220   0.04914   0.01886  -0.0107   1.0001   0.9999   1.0000 160.0000
   2.500   0.1358   0.05032   0.01993  -0.0109   1.0001   0.9999   1.0000 160.0000
   2.750   0.1495   0.05157   0.02108  -0.0112   1.0001   0.9999   1.0000 160.0000
   3.000   0.1630   0.05289   0.02230  -0.0115   1.0001   0.9999   1.0000 160.0000
   3.250   0.1764   0.05428   0.02359  -0.0119   1.0001   0.9999   1.0000 160.0000
   3.500   0.1897   0.05574   0.02496  -0.0123   1.0001   0.9999   1.0000 160.0000
   3.750   0.2028   0.05728   0.02640  -0.0128   1.0001   0.9999   1.0000 160.0000
   4.000   0.2157   0.05888   0.02791  -0.0134   1.0001   0.9999   1.0000 160.0000
   4.250   0.2284   0.06055   0.02950  -0.0140   1.0001   0.9999   1.0000 160.0000
   4.500   0.2410   0.06230   0.03116  -0.0146   1.0001   0.9999   1.0000 160.0000
   4.750   0.2534   0.06411   0.03290  -0.0153   1.0001   0.9999   1.0000 160.0000
   5.000   0.2655   0.06600   0.03470  -0.0161   1.0001   0.9999   1.0000 160.0000
   5.250   0.2775   0.06795   0.03658  -0.0169   1.0001   0.9999   1.0000 160.0000
   5.500   0.2893   0.06998   0.03854  -0.0177   1.0001   0.9999   1.0000 160.0000
   5.750   0.3009   0.07207   0.04056  -0.0186   1.0001   0.9999   1.0000 160.0000
   6.000   0.3124   0.07423   0.04267  -0.0195   1.0001   0.9999   1.0000 160.0000
   6.250   0.3236   0.07647   0.04485  -0.0204   1.0001   0.9999   1.0000 160.0000
   6.500   0.3347   0.07877   0.04711  -0.0214   1.0001   0.9999   1.0000 160.0000
   6.750   0.3456   0.08114   0.04944  -0.0224   1.0001   0.9999   1.0000 160.0000
   7.000   0.3564   0.08357   0.05185  -0.0234   1.0001   0.9999   1.0000 160.0000
   7.250   0.3670   0.08607   0.05434  -0.0245   1.0001   0.9999   1.0000 160.0000
   7.500   0.3774   0.08863   0.05691  -0.0256   1.0001   0.9999   1.0000 160.0000
   7.750   0.3877   0.09126   0.05955  -0.0267   1.0001   0.9999   1.0000 160.0000
   8.000   0.3978   0.09394   0.06228  -0.0278   1.0001   0.9999   1.0000 160.0000
   8.250   0.4078   0.09668   0.06509  -0.0290   1.0001   0.9999   1.0000 160.0000
   8.500   0.4176   0.09947   0.06798  -0.0302   1.0001   0.9999   1.0000 160.0000
   8.750   0.4273   0.10232   0.07096  -0.0314   1.0001   0.9999   1.0000 160.0000
   9.000   0.4370   0.10522   0.07404  -0.0327   1.0001   0.9999   1.0000 160.0000
   9.250   0.4465   0.10817   0.07720  -0.0340   1.0001   0.9999   1.0000 160.0000
   9.500   0.4560   0.11117   0.08045  -0.0353   1.0001   0.9999   1.0000 160.0000
   9.750   0.4653   0.11421   0.08380  -0.0366   1.0001   0.9999   1.0000 160.0000
  10.000   0.4747   0.11729   0.08726  -0.0380   1.0001   0.9999   1.0000 160.0000
  10.250   0.4839   0.12041   0.09082  -0.0394   1.0001   0.9999   1.0000 160.0000
  10.750   0.5024   0.12678   0.09826  -0.0423   1.0001   0.9999   1.0000 160.0000
  11.000   0.5116   0.13001   0.10214  -0.0439   1.0001   0.9999   1.0000 160.0000
  11.250   0.5208   0.13328   0.10615  -0.0454   1.0001   0.9999   1.0000 160.0000
  11.500   0.5300   0.13659   0.11028  -0.0470   1.0001   0.9999   1.0000 160.0000
  11.750   0.5392   0.13992   0.11452  -0.0487   1.0001   0.9999   1.0000 160.0000
  12.000   0.5485   0.14329   0.11890  -0.0503   1.0001   0.9999   1.0000 160.0000
